/*--------------------------------*- C++ -*----------------------------------*\
| =========                 |                                                 |
| \\      /  F ield         | OpenFOAM: The Open Source CFD Toolbox           |
|  \\    /   O peration     | Version:  5.x                                   |
|   \\  /    A nd           | Web:      www.OpenFOAM.org                      |
|    \\/     M anipulation  |                                                 |
\*---------------------------------------------------------------------------*/
/*   Windows 32 and 64 bit porting by blueCAPE: http://www.bluecape.com.pt   *\
|  Based on Windows porting (2.0.x v4) by Symscape: http://www.symscape.com   |
\*---------------------------------------------------------------------------*/
FoamFile
{
    version     2.0;
    format      ascii;
    class       extendedFeatureEdgeMesh;
    location    "constant/extendedFeatureEdgeMesh";
    object      diffuser.extendedFeatureEdgeMesh;
}
// * * * * * * * * * * * * * * * * * * * * * * * * * * * * * * * * * * * * * //

// points
8((0.005 0.1775 -3.7238e-018) (0.005 0.0275 4.1541e-033) (0.005 0.1775 0.035) (0.005 0.0275 0.035) (0.04 0.1775 -3.7238e-018) (0.04 0.1775 0.035) (0.04 0.0275 5.79457e-033) (0.04 0.0275 0.035))
// edges

18
(
(2 0)
(0 1)
(1 3)
(3 2)
(5 4)
(4 0)
(2 5)
(7 6)
(6 4)
(5 7)
(1 6)
(7 3)
(1 2)
(0 5)
(4 7)
(6 3)
(0 6)
(5 3)
)

// concaveStart mixedStart nonFeatureStart
0 0 8
// internalStart flatStart openStart multipleStart
12 12 18 18
// normals

12
(
(-1 0 0)
(0 1 0)
(4.68707e-032 -2.48253e-017 -1)
(-1 -0 0)
(0 -1 0)
(0 0 1)
(0 1 -0)
(1 -0 0)
(0 -2.48253e-017 -1)
(1 -0 0)
(0 -1 0)
(0 -0 1)
)

// normal volume types

12
(
0
0
0
0
0
0
0
0
0
0
0
0
)

// normalDirections

18
(
2(1 -1)
2(1 -1)
2(1 -1)
2(1 -1)
2(1 -1)
2(1 -1)
2(1 -1)
2(1 -1)
2(1 -1)
2(1 -1)
2(1 -1)
2(1 -1)
2(1 -1)
2(1 -1)
2(1 -1)
2(1 -1)
2(1 -1)
2(1 -1)
)

// edgeNormals

18
(
2(0 1)
2(0 2)
2(3 4)
2(3 5)
2(6 7)
2(6 8)
2(1 5)
2(9 10)
2(9 8)
2(7 11)
2(4 2)
2(10 11)
2(0 3)
2(6 1)
2(9 7)
2(4 10)
2(2 8)
2(11 5)
)

// featurePointNormals

8
(
3(0 1 2)
3(0 2 4)
3(0 1 5)
3(3 4 5)
3(6 7 8)
3(6 7 5)
3(9 10 8)
3(9 10 11)
)

// featurePointEdges

8
(
5(0 13 5 16 1)
4(12 2 10 1)
4(12 3 6 0)
5(2 15 11 17 3)
4(4 14 8 5)
5(13 6 17 9 4)
5(7 15 10 16 8)
4(14 9 11 7)
)

// regionEdges
0()


// ************************************************************************* //
